*****************************************************************
* INFINEON Power Transistors                                    *
* Level-0/1/3 PSPICE Library for CoolMOS Transistors CFDA 650V  *
* Version 140513                                                *
*                                                               *
*****************************************************************
*****************************************************************
*                                                               *
* Models provided by INFINEON are not warranted by INFINEON as  *
* fully representing all of the specifications and operating    *
* characteristics of the semiconductor product to which the     *
* model relates. The model describe the characteristics of a    *
* typical device.                                               *
* In all cases, the current data sheet information for a given  *
* device is the final design guideline and the only actual      *
* performance specification.                                    *
* Altough models can be a useful tool in evaluating device      *
* performance, they cannot model exact device performance under *
* all conditions, nor are they intended to replace bread-       *
* boarding for final verification. INFINEON therefore does not  *
* assume any liability arising from their use.                  *
* INFINEON reserves the right to change models without prior    *
* notice.                                                       *
*                                                               *
* This library contains models of the following INFINEON        *
* CoolMOS transistors:                                          *
*                                                               *
*   650 V CFDA                                                  *
*       IPW65R048CFDA      IPW65R080CFDA     IPP65R110CFDA      *
*       IPW65R110CFDA      IPB65R110CFDA     IPP65R150CFDA      *
*       IPW65R150CFDA      IPB65R150CFDA     IPP65R190CFDA      *
*       IPW65R190CFDA      IPB65R190CFDA     IPP65R310CFDA      *
*       IPB65R310CFDA      IPD65R420CFDA     IPP65R660CFDA      *
*       IPB65R660CFDA      IPD65R660CFDA                        *
*                                                               *
*****************************************************************

.SUBCKT IPW65R048CFDA_L0  drain  gate  source

Lg     gate  g1    5n
Ld     drain d1    3n
Ls     source s1   5n
Rs      s1    s2   2m

Rg     g1    g2     0.7
M1      d2    g2    s2    s2    DMOS    L=1u   W=1u
.MODEL DMOS NMOS ( KP= 74.189  VTO=4.85  THETA=0  VMAX=1.5e5  ETA=0  LEVEL=3)
Rd     d2    d1a    0.034 TC=10m
.MODEL MVDR NMOS (KP=223.16 VTO=-1   LAMBDA=0.2)
Mr d1 d2a d1a d1a MVDR W=1u L=1u
Rx d2a d1a 1m
Cds1 s2 d2 194.3p
Dbd     s2    d2    Dbt
.MODEL     Dbt    D(BV=650   M=0.9  CJO=77.13n  VJ=0.5V)
Dbody   s2   21    DBODY
.MODEL DBODY  D(IS=6830080p  N=2  RS=2u  EG=1.12  TT=65n)
Rdiode  d1  21    2.02m TC=0

.MODEL   sw    NMOS(VTO=0  KP=10   LEVEL=1)
Maux      g2   c    a    a   sw
Maux2     b    d    g2    g2   sw
Eaux      c    a    d2    g2   1
Eaux2     d    g2   d2    g2   -1
Cox       b    d2   13.37n
.MODEL     DGD    D(M=0.88   CJO=13.37n   VJ=0.5)
Rpar      b    d2   1Meg
Dgd       a    d2   DGD
Rpar2     d2   a    10Meg
Cgs     g2    s2    8.42n

.ENDS  IPW65R048CFDA_L0

******

.SUBCKT IPW65R080CFDA_L0  drain  gate  source

Lg     gate  g1    5n
Ld     drain d1    3n
Ls     source s1   5n
Rs      s1    s2   2m

Rg     g1    g2     0.8
M1      d2    g2    s2    s2    DMOS    L=1u   W=1u
.MODEL DMOS NMOS ( KP= 44.264  VTO=4.85  THETA=0  VMAX=1.5e5  ETA=0  LEVEL=3)
Rd     d2    d1a    0.057 TC=10m
.MODEL MVDR NMOS (KP=133.14 VTO=-1   LAMBDA=0.2)
Mr d1 d2a d1a d1a MVDR W=1u L=1u
Rx d2a d1a 1m
Cds1 s2 d2 115.9p
Dbd     s2    d2    Dbt
.MODEL     Dbt    D(BV=650   M=0.9  CJO=46.02n  VJ=0.5V)
Dbody   s2   21    DBODY
.MODEL DBODY  D(IS=4075080p  N=2  RS=4u  EG=1.12  TT=65n)
Rdiode  d1  21    3.39m TC=0

.MODEL   sw    NMOS(VTO=0  KP=10   LEVEL=1)
Maux      g2   c    a    a   sw
Maux2     b    d    g2    g2   sw
Eaux      c    a    d2    g2   1
Eaux2     d    g2   d2    g2   -1
Cox       b    d2   7.97n
.MODEL     DGD    D(M=0.88   CJO=7.97n   VJ=0.5)
Rpar      b    d2   1Meg
Dgd       a    d2   DGD
Rpar2     d2   a    10Meg
Cgs     g2    s2    5.02n

.ENDS  IPW65R080CFDA_L0

******

.SUBCKT IPP65R110CFDA_L0  drain  gate  source

Lg     gate  g1    4n
Ld     drain d1    2.5n
Ls     source s1   2.5n
Rs      s1    s2   2m

Rg     g1    g2     1.0
M1      d2    g2    s2    s2    DMOS    L=1u   W=1u
.MODEL DMOS NMOS ( KP= 32.281  VTO=4.85  THETA=0  VMAX=1.5e5  ETA=0  LEVEL=3)
Rd     d2    d1a    0.078 TC=10m
.MODEL MVDR NMOS (KP=97.1 VTO=-1   LAMBDA=0.2)
Mr d1 d2a d1a d1a MVDR W=1u L=1u
Rx d2a d1a 1m
Cds1 s2 d2 84.5p
Dbd     s2    d2    Dbt
.MODEL     Dbt    D(BV=650   M=0.9  CJO=33.56n  VJ=0.5V)
Dbody   s2   21    DBODY
.MODEL DBODY  D(IS=2971920p  N=2  RS=5u  EG=1.12  TT=65n)
Rdiode  d1  21    4.64m TC=0

.MODEL   sw    NMOS(VTO=0  KP=10   LEVEL=1)
Maux      g2   c    a    a   sw
Maux2     b    d    g2    g2   sw
Eaux      c    a    d2    g2   1
Eaux2     d    g2   d2    g2   -1
Cox       b    d2   5.82n
.MODEL     DGD    D(M=0.88   CJO=5.82n   VJ=0.5)
Rpar      b    d2   1Meg
Dgd       a    d2   DGD
Rpar2     d2   a    10Meg
Cgs     g2    s2    3.66n

.ENDS  IPP65R110CFDA_L0

******

.SUBCKT IPW65R110CFDA_L0  drain  gate  source

Lg     gate  g1    5n
Ld     drain d1    3n
Ls     source s1   5n
Rs      s1    s2   2m

Rg     g1    g2     1.31
M1      d2    g2    s2    s2    DMOS    L=1u   W=1u
.MODEL DMOS NMOS ( KP= 32.281  VTO=4.85  THETA=0  VMAX=1.5e5  ETA=0  LEVEL=3)
Rd     d2    d1a    0.078 TC=10m
.MODEL MVDR NMOS (KP=97.1 VTO=-1   LAMBDA=0.2)
Mr d1 d2a d1a d1a MVDR W=1u L=1u
Rx d2a d1a 1m
Cds1 s2 d2 84.5p
Dbd     s2    d2    Dbt
.MODEL     Dbt    D(BV=650   M=0.9  CJO=33.56n  VJ=0.5V)
Dbody   s2   21    DBODY
.MODEL DBODY  D(IS=2971920p  N=2  RS=5u  EG=1.12  TT=250n)
Rdiode  d1  21    4.64m TC=0

.MODEL   sw    NMOS(VTO=0  KP=10   LEVEL=1)
Maux      g2   c    a    a   sw
Maux2     b    d    g2    g2   sw
Eaux      c    a    d2    g2   1
Eaux2     d    g2   d2    g2   -1
Cox       b    d2   5.82n
.MODEL     DGD    D(M=0.88   CJO=5.82n   VJ=0.5)
Rpar      b    d2   1Meg
Dgd       a    d2   DGD
Rpar2     d2   a    10Meg
Cgs     g2    s2    3.66n

.ENDS  IPW65R110CFDA_L0

******

.SUBCKT IPB65R110CFDA_L0  drain  gate  source

Lg     gate  g1    4n
Ld     drain d1    1n
Ls     source s1   2.5n
Rs      s1    s2   2m

Rg     g1    g2     1.31
M1      d2    g2    s2    s2    DMOS    L=1u   W=1u
.MODEL DMOS NMOS ( KP= 32.281  VTO=4.85  THETA=0  VMAX=1.5e5  ETA=0  LEVEL=3)
Rd     d2    d1a    0.078 TC=10m
.MODEL MVDR NMOS (KP=97.1 VTO=-1   LAMBDA=0.2)
Mr d1 d2a d1a d1a MVDR W=1u L=1u
Rx d2a d1a 1m
Cds1 s2 d2 84.5p
Dbd     s2    d2    Dbt
.MODEL     Dbt    D(BV=650   M=0.9  CJO=33.56n  VJ=0.5V)
Dbody   s2   21    DBODY
.MODEL DBODY  D(IS=2971920p  N=2  RS=5u  EG=1.12  TT=250n)
Rdiode  d1  21    4.64m TC=0

.MODEL   sw    NMOS(VTO=0  KP=10   LEVEL=1)
Maux      g2   c    a    a   sw
Maux2     b    d    g2    g2   sw
Eaux      c    a    d2    g2   1
Eaux2     d    g2   d2    g2   -1
Cox       b    d2   5.82n
.MODEL     DGD    D(M=0.88   CJO=5.82n   VJ=0.5)
Rpar      b    d2   1Meg
Dgd       a    d2   DGD
Rpar2     d2   a    10Meg
Cgs     g2    s2    3.66n

.ENDS  IPB65R110CFDA_L0

******

.SUBCKT IPP65R150CFDA_L0  drain  gate  source

Lg     gate  g1    4n
Ld     drain d1    2.5n
Ls     source s1   2.5n
Rs      s1    s2   2m

Rg     g1    g2     1.51
M1      d2    g2    s2    s2    DMOS    L=1u   W=1u
.MODEL DMOS NMOS ( KP= 23.335  VTO=4.85  THETA=0  VMAX=1.5e5  ETA=0  LEVEL=3)
Rd     d2    d1a    0.108 TC=10m
.MODEL MVDR NMOS (KP=70.19 VTO=-1   LAMBDA=0.2)
Mr d1 d2a d1a d1a MVDR W=1u L=1u
Rx d2a d1a 1m
Cds1 s2 d2 61.1p
Dbd     s2    d2    Dbt
.MODEL     Dbt    D(BV=650   M=0.9  CJO=24.26n  VJ=0.5V)
Dbody   s2   21    DBODY
.MODEL DBODY  D(IS=2148320p  N=2  RS=7u  EG=1.12  TT=250n)
Rdiode  d1  21    6.43m TC=0

.MODEL   sw    NMOS(VTO=0  KP=10   LEVEL=1)
Maux      g2   c    a    a   sw
Maux2     b    d    g2    g2   sw
Eaux      c    a    d2    g2   1
Eaux2     d    g2   d2    g2   -1
Cox       b    d2   4.2n
.MODEL     DGD    D(M=0.88   CJO=4.2n   VJ=0.5)
Rpar      b    d2   1Meg
Dgd       a    d2   DGD
Rpar2     d2   a    10Meg
Cgs     g2    s2    2.65n

.ENDS  IPP65R150CFDA_L0

******

.SUBCKT IPW65R150CFDA_L0  drain  gate  source

Lg     gate  g1    5n
Ld     drain d1    3n
Ls     source s1   5n
Rs      s1    s2   2m

Rg     g1    g2     1.51
M1      d2    g2    s2    s2    DMOS    L=1u   W=1u
.MODEL DMOS NMOS ( KP= 23.335  VTO=4.85  THETA=0  VMAX=1.5e5  ETA=0  LEVEL=3)
Rd     d2    d1a    0.108 TC=10m
.MODEL MVDR NMOS (KP=70.19 VTO=-1   LAMBDA=0.2)
Mr d1 d2a d1a d1a MVDR W=1u L=1u
Rx d2a d1a 1m
Cds1 s2 d2 61.1p
Dbd     s2    d2    Dbt
.MODEL     Dbt    D(BV=650   M=0.9  CJO=24.26n  VJ=0.5V)
Dbody   s2   21    DBODY
.MODEL DBODY  D(IS=2148320p  N=2  RS=7u  EG=1.12  TT=250n)
Rdiode  d1  21    6.43m TC=0

.MODEL   sw    NMOS(VTO=0  KP=10   LEVEL=1)
Maux      g2   c    a    a   sw
Maux2     b    d    g2    g2   sw
Eaux      c    a    d2    g2   1
Eaux2     d    g2   d2    g2   -1
Cox       b    d2   4.2n
.MODEL     DGD    D(M=0.88   CJO=4.2n   VJ=0.5)
Rpar      b    d2   1Meg
Dgd       a    d2   DGD
Rpar2     d2   a    10Meg
Cgs     g2    s2    2.65n

.ENDS  IPW65R150CFDA_L0

******

.SUBCKT IPB65R150CFDA_L0  drain  gate  source

Lg     gate  g1    4n
Ld     drain d1    1n
Ls     source s1   2.5n
Rs      s1    s2   2m

Rg     g1    g2     1.51
M1      d2    g2    s2    s2    DMOS    L=1u   W=1u
.MODEL DMOS NMOS ( KP= 23.335  VTO=4.85  THETA=0  VMAX=1.5e5  ETA=0  LEVEL=3)
Rd     d2    d1a    0.108 TC=10m
.MODEL MVDR NMOS (KP=70.19 VTO=-1   LAMBDA=0.2)
Mr d1 d2a d1a d1a MVDR W=1u L=1u
Rx d2a d1a 1m
Cds1 s2 d2 61.1p
Dbd     s2    d2    Dbt
.MODEL     Dbt    D(BV=650   M=0.9  CJO=24.26n  VJ=0.5V)
Dbody   s2   21    DBODY
.MODEL DBODY  D(IS=2148320p  N=2  RS=7u  EG=1.12  TT=250n)
Rdiode  d1  21    6.43m TC=0

.MODEL   sw    NMOS(VTO=0  KP=10   LEVEL=1)
Maux      g2   c    a    a   sw
Maux2     b    d    g2    g2   sw
Eaux      c    a    d2    g2   1
Eaux2     d    g2   d2    g2   -1
Cox       b    d2   4.2n
.MODEL     DGD    D(M=0.88   CJO=4.2n   VJ=0.5)
Rpar      b    d2   1Meg
Dgd       a    d2   DGD
Rpar2     d2   a    10Meg
Cgs     g2    s2    2.65n

.ENDS  IPB65R150CFDA_L0

******

.SUBCKT IPP65R190CFDA_L0  drain  gate  source

Lg     gate  g1    4n
Ld     drain d1    2.5n
Ls     source s1   2.5n
Rs      s1    s2   2m

Rg     g1    g2     1.2
M1      d2    g2    s2    s2    DMOS    L=1u   W=1u
.MODEL DMOS NMOS ( KP= 18.446  VTO=4.85  THETA=0  VMAX=1.5e5  ETA=0  LEVEL=3)
Rd     d2    d1a    0.137 TC=10m
.MODEL MVDR NMOS (KP=55.49 VTO=-1   LAMBDA=0.2)
Mr d1 d2a d1a d1a MVDR W=1u L=1u
Rx d2a d1a 1m
Cds1 s2 d2 48.3p
Dbd     s2    d2    Dbt
.MODEL     Dbt    D(BV=650   M=0.9  CJO=19.18n  VJ=0.5V)
Dbody   s2   21    DBODY
.MODEL DBODY  D(IS=1698240p  N=2  RS=9u  EG=1.12  TT=65n)
Rdiode  d1  21    8.13m TC=0

.MODEL   sw    NMOS(VTO=0  KP=10   LEVEL=1)
Maux      g2   c    a    a   sw
Maux2     b    d    g2    g2   sw
Eaux      c    a    d2    g2   1
Eaux2     d    g2   d2    g2   -1
Cox       b    d2   3.32n
.MODEL     DGD    D(M=0.88   CJO=3.32n   VJ=0.5)
Rpar      b    d2   1Meg
Dgd       a    d2   DGD
Rpar2     d2   a    10Meg
Cgs     g2    s2    2.09n

.ENDS  IPP65R190CFDA_L0

******

.SUBCKT IPW65R190CFDA_L0  drain  gate  source

Lg     gate  g1    5n
Ld     drain d1    3n
Ls     source s1   5n
Rs      s1    s2   2m

Rg     g1    g2     1.0
M1      d2    g2    s2    s2    DMOS    L=1u   W=1u
.MODEL DMOS NMOS ( KP= 18.446  VTO=4.85  THETA=0  VMAX=1.5e5  ETA=0  LEVEL=3)
Rd     d2    d1a    0.137 TC=10m
.MODEL MVDR NMOS (KP=55.49 VTO=-1   LAMBDA=0.2)
Mr d1 d2a d1a d1a MVDR W=1u L=1u
Rx d2a d1a 1m
Cds1 s2 d2 48.3p
Dbd     s2    d2    Dbt
.MODEL     Dbt    D(BV=650   M=0.9  CJO=19.18n  VJ=0.5V)
Dbody   s2   21    DBODY
.MODEL DBODY  D(IS=1698240p  N=2  RS=9u  EG=1.12  TT=250n)
Rdiode  d1  21    8.13m TC=0

.MODEL   sw    NMOS(VTO=0  KP=10   LEVEL=1)
Maux      g2   c    a    a   sw
Maux2     b    d    g2    g2   sw
Eaux      c    a    d2    g2   1
Eaux2     d    g2   d2    g2   -1
Cox       b    d2   3.32n
.MODEL     DGD    D(M=0.88   CJO=3.32n   VJ=0.5)
Rpar      b    d2   1Meg
Dgd       a    d2   DGD
Rpar2     d2   a    10Meg
Cgs     g2    s2    2.09n

.ENDS  IPW65R190CFDA_L0

******

.SUBCKT IPB65R190CFDA_L0  drain  gate  source

Lg     gate  g1    4n
Ld     drain d1    1n
Ls     source s1   2.5n
Rs      s1    s2   2m

Rg     g1    g2     1.2
M1      d2    g2    s2    s2    DMOS    L=1u   W=1u
.MODEL DMOS NMOS ( KP= 18.446  VTO=4.85  THETA=0  VMAX=1.5e5  ETA=0  LEVEL=3)
Rd     d2    d1a    0.137 TC=10m
.MODEL MVDR NMOS (KP=55.49 VTO=-1   LAMBDA=0.2)
Mr d1 d2a d1a d1a MVDR W=1u L=1u
Rx d2a d1a 1m
Cds1 s2 d2 48.3p
Dbd     s2    d2    Dbt
.MODEL     Dbt    D(BV=650   M=0.9  CJO=19.18n  VJ=0.5V)
Dbody   s2   21    DBODY
.MODEL DBODY  D(IS=1698240p  N=2  RS=9u  EG=1.12  TT=250n)
Rdiode  d1  21    8.13m TC=0

.MODEL   sw    NMOS(VTO=0  KP=10   LEVEL=1)
Maux      g2   c    a    a   sw
Maux2     b    d    g2    g2   sw
Eaux      c    a    d2    g2   1
Eaux2     d    g2   d2    g2   -1
Cox       b    d2   3.32n
.MODEL     DGD    D(M=0.88   CJO=3.32n   VJ=0.5)
Rpar      b    d2   1Meg
Dgd       a    d2   DGD
Rpar2     d2   a    10Meg
Cgs     g2    s2    2.09n

.ENDS  IPB65R190CFDA_L0

******

.SUBCKT IPP65R310CFDA_L0  drain  gate  source

Lg     gate  g1    4n
Ld     drain d1    2.5n
Ls     source s1   2.5n
Rs      s1    s2   2m

Rg     g1    g2     4.4
M1      d2    g2    s2    s2    DMOS    L=1u   W=1u
.MODEL DMOS NMOS ( KP= 11.075  VTO=4.85  THETA=0  VMAX=1.5e5  ETA=0  LEVEL=3)
Rd     d2    d1a    0.228 TC=10m
.MODEL MVDR NMOS (KP=33.31 VTO=-1   LAMBDA=0.2)
Mr d1 d2a d1a d1a MVDR W=1u L=1u
Rx d2a d1a 1m
Cds1 s2 d2 29p
Dbd     s2    d2    Dbt
.MODEL     Dbt    D(BV=650   M=0.9  CJO=11.51n  VJ=0.5V)
Dbody   s2   21    DBODY
.MODEL DBODY  D(IS=1019640p  N=2  RS=15u  EG=1.12  TT=65n)
Rdiode  d1  21    13.54m TC=0

.MODEL   sw    NMOS(VTO=0  KP=10   LEVEL=1)
Maux      g2   c    a    a   sw
Maux2     b    d    g2    g2   sw
Eaux      c    a    d2    g2   1
Eaux2     d    g2   d2    g2   -1
Cox       b    d2   2n
.MODEL     DGD    D(M=0.88   CJO=2n   VJ=0.5)
Rpar      b    d2   1Meg
Dgd       a    d2   DGD
Rpar2     d2   a    10Meg
Cgs     g2    s2    1.26n

.ENDS  IPP65R310CFDA_L0

******

.SUBCKT IPB65R310CFDA_L0  drain  gate  source

Lg     gate  g1    4n
Ld     drain d1    1n
Ls     source s1   2.5n
Rs      s1    s2   2m

Rg     g1    g2     4.4
M1      d2    g2    s2    s2    DMOS    L=1u   W=1u
.MODEL DMOS NMOS ( KP= 11.075  VTO=4.85  THETA=0  VMAX=1.5e5  ETA=0  LEVEL=3)
Rd     d2    d1a    0.228 TC=10m
.MODEL MVDR NMOS (KP=33.31 VTO=-1   LAMBDA=0.2)
Mr d1 d2a d1a d1a MVDR W=1u L=1u
Rx d2a d1a 1m
Cds1 s2 d2 29p
Dbd     s2    d2    Dbt
.MODEL     Dbt    D(BV=650   M=0.9  CJO=11.51n  VJ=0.5V)
Dbody   s2   21    DBODY
.MODEL DBODY  D(IS=1019640p  N=2  RS=15u  EG=1.12  TT=250n)
Rdiode  d1  21    13.54m TC=0

.MODEL   sw    NMOS(VTO=0  KP=10   LEVEL=1)
Maux      g2   c    a    a   sw
Maux2     b    d    g2    g2   sw
Eaux      c    a    d2    g2   1
Eaux2     d    g2   d2    g2   -1
Cox       b    d2   2n
.MODEL     DGD    D(M=0.88   CJO=2n   VJ=0.5)
Rpar      b    d2   1Meg
Dgd       a    d2   DGD
Rpar2     d2   a    10Meg
Cgs     g2    s2    1.26n

.ENDS  IPB65R310CFDA_L0

******

.SUBCKT IPD65R420CFDA_L0  drain  gate  source

Lg     gate  g1    3n
Ld     drain d1    1n
Ls     source s1   2n
Rs      s1    s2   2m

Rg     g1    g2     3.9
M1      d2    g2    s2    s2    DMOS    L=1u   W=1u
.MODEL DMOS NMOS ( KP= 8.681  VTO=4.85  THETA=0  VMAX=1.5e5  ETA=0  LEVEL=3)
Rd     d2    d1a    0.29 TC=10m
.MODEL MVDR NMOS (KP=26.11 VTO=-1   LAMBDA=0.2)
Mr d1 d2a d1a d1a MVDR W=1u L=1u
Rx d2a d1a 1m
Cds1 s2 d2 22.7p
Dbd     s2    d2    Dbt
.MODEL     Dbt    D(BV=650   M=0.9  CJO=9.03n  VJ=0.5V)
Dbody   s2   21    DBODY
.MODEL DBODY  D(IS=799240p  N=2  RS=19u  EG=1.12  TT=250n)
Rdiode  d1  21    17.27m TC=0

.MODEL   sw    NMOS(VTO=0  KP=10   LEVEL=1)
Maux      g2   c    a    a   sw
Maux2     b    d    g2    g2   sw
Eaux      c    a    d2    g2   1
Eaux2     d    g2   d2    g2   -1
Cox       b    d2   1.56n
.MODEL     DGD    D(M=0.88   CJO=1.56n   VJ=0.5)
Rpar      b    d2   1Meg
Dgd       a    d2   DGD
Rpar2     d2   a    10Meg
Cgs     g2    s2    0.99n

.ENDS  IPD65R420CFDA_L0

******

.SUBCKT IPP65R660CFDA_L0  drain  gate  source

Lg     gate  g1    4n
Ld     drain d1    2.5n
Ls     source s1   2.5n
Rs      s1    s2   2m

Rg     g1    g2     6.7
M1      d2    g2    s2    s2    DMOS    L=1u   W=1u
.MODEL DMOS NMOS ( KP= 5.405  VTO=4.85  THETA=0  VMAX=1.5e5  ETA=0  LEVEL=3)
Rd     d2    d1a    0.467 TC=10m
.MODEL MVDR NMOS (KP=16.26 VTO=-1   LAMBDA=0.2)
Mr d1 d2a d1a d1a MVDR W=1u L=1u
Rx d2a d1a 1m
Cds1 s2 d2 14.2p
Dbd     s2    d2    Dbt
.MODEL     Dbt    D(BV=650   M=0.9  CJO=5.62n  VJ=0.5V)
Dbody   s2   21    DBODY
.MODEL DBODY  D(IS=497640p  N=2  RS=31u  EG=1.12  TT=65n)
Rdiode  d1  21    27.74m TC=0

.MODEL   sw    NMOS(VTO=0  KP=10   LEVEL=1)
Maux      g2   c    a    a   sw
Maux2     b    d    g2    g2   sw
Eaux      c    a    d2    g2   1
Eaux2     d    g2   d2    g2   -1
Cox       b    d2   0.97n
.MODEL     DGD    D(M=0.88   CJO=0.97n   VJ=0.5)
Rpar      b    d2   1Meg
Dgd       a    d2   DGD
Rpar2     d2   a    10Meg
Cgs     g2    s2    0.61n

.ENDS  IPP65R660CFDA_L0

******

.SUBCKT IPB65R660CFDA_L0  drain  gate  source

Lg     gate  g1    4n
Ld     drain d1    1n
Ls     source s1   2.5n
Rs      s1    s2   2m

Rg     g1    g2     6.7
M1      d2    g2    s2    s2    DMOS    L=1u   W=1u
.MODEL DMOS NMOS ( KP= 5.405  VTO=4.85  THETA=0  VMAX=1.5e5  ETA=0  LEVEL=3)
Rd     d2    d1a    0.466 TC=10m
.MODEL MVDR NMOS (KP=16.26 VTO=-1   LAMBDA=0.2)
Mr d1 d2a d1a d1a MVDR W=1u L=1u
Rx d2a d1a 1m
Cds1 s2 d2 14.2p
Dbd     s2    d2    Dbt
.MODEL     Dbt    D(BV=650   M=0.9  CJO=5.62n  VJ=0.5V)
Dbody   s2   21    DBODY
.MODEL DBODY  D(IS=497640p  N=2  RS=31u  EG=1.12  TT=250n)
Rdiode  d1  21    27.74m TC=0

.MODEL   sw    NMOS(VTO=0  KP=10   LEVEL=1)
Maux      g2   c    a    a   sw
Maux2     b    d    g2    g2   sw
Eaux      c    a    d2    g2   1
Eaux2     d    g2   d2    g2   -1
Cox       b    d2   0.97n
.MODEL     DGD    D(M=0.88   CJO=0.97n   VJ=0.5)
Rpar      b    d2   1Meg
Dgd       a    d2   DGD
Rpar2     d2   a    10Meg
Cgs     g2    s2    0.61n

.ENDS  IPB65R660CFDA_L0

******

.SUBCKT IPD65R660CFDA_L0  drain  gate  source

Lg     gate  g1    3n
Ld     drain d1    1n
Ls     source s1   2n
Rs      s1    s2   2m

Rg     g1    g2     6.7
M1      d2    g2    s2    s2    DMOS    L=1u   W=1u
.MODEL DMOS NMOS ( KP= 5.405  VTO=4.85  THETA=0  VMAX=1.5e5  ETA=0  LEVEL=3)
Rd     d2    d1a    0.466 TC=10m
.MODEL MVDR NMOS (KP=16.26 VTO=-1   LAMBDA=0.2)
Mr d1 d2a d1a d1a MVDR W=1u L=1u
Rx d2a d1a 1m
Cds1 s2 d2 14.2p
Dbd     s2    d2    Dbt
.MODEL     Dbt    D(BV=650   M=0.9  CJO=5.62n  VJ=0.5V)
Dbody   s2   21    DBODY
.MODEL DBODY  D(IS=497640p  N=2  RS=31u  EG=1.12  TT=250n)
Rdiode  d1  21    27.74m TC=0

.MODEL   sw    NMOS(VTO=0  KP=10   LEVEL=1)
Maux      g2   c    a    a   sw
Maux2     b    d    g2    g2   sw
Eaux      c    a    d2    g2   1
Eaux2     d    g2   d2    g2   -1
Cox       b    d2   0.97n
.MODEL     DGD    D(M=0.88   CJO=0.97n   VJ=0.5)
Rpar      b    d2   1Meg
Dgd       a    d2   DGD
Rpar2     d2   a    10Meg
Cgs     g2    s2    0.61n

.ENDS  IPD65R660CFDA_L0

******

.SUBCKT IPW65R048CFDA_L1 drain gate source PARAMS: dVth=0 dRdson=0

.PARAM Rs=2m        Rg=0.7       Ls=5n        Ld=3n        Lg=5n
.PARAM act=58.88    Inn=29.4     Unn=10       Rmax=48m

X1  dd g s Tj Tj cool_650_icfd_var PARAMS: act={act} dVth={dVth} dR={dRdson} Inn={Inn} Unn={Unn} 
                                        +Rmax={Rmax} Rs={Rs} heat=0
L_Ld         drain  dd    {Ld}
R_Ld         drain  dd    10

L_Ls         source lsrs  {Ls}
R_Ls         source lsrs  10
R_Rs         s      lsrs  {Rs}

L_Lg         gate   lgrg  {Lg}
R_Lg         gate   lgrg  10
R_Rg         lgrg   g     {Rg}

E1    Tj     w      VALUE={TEMP}
R1    w      0      1u

.ENDS

**********

.SUBCKT IPW65R080CFDA_L1 drain gate source PARAMS: dVth=0 dRdson=0

.PARAM Rs=2m        Rg=0.8       Ls=5n        Ld=3n        Lg=5n
.PARAM act=35.13    Inn=17.6     Unn=10       Rmax=80m

X1  dd g s Tj Tj cool_650_icfd_var PARAMS: act={act} dVth={dVth} dR={dRdson} Inn={Inn} Unn={Unn} 
                                        +Rmax={Rmax} Rs={Rs} heat=0
L_Ld         drain  dd    {Ld}
R_Ld         drain  dd    10

L_Ls         source lsrs  {Ls}
R_Ls         source lsrs  10
R_Rs         s      lsrs  {Rs}

L_Lg         gate   lgrg  {Lg}
R_Lg         gate   lgrg  10
R_Rg         lgrg   g     {Rg}

E1    Tj     w      VALUE={TEMP}
R1    w      0      1u

.ENDS

**********

.SUBCKT IPP65R110CFDA_L1 drain gate source PARAMS: dVth=0 dRdson=0

.PARAM Rs=2m        Rg=1.0       Ls=2.5n      Ld=2.5n      Lg=4n
.PARAM act=25.62    Inn=19.2     Unn=10       Rmax=110m

X1  dd g s Tj Tj cool_650_icfd_var PARAMS: act={act} dVth={dVth} dR={dRdson} Inn={Inn} Unn={Unn} 
                                        +Rmax={Rmax} Rs={Rs} heat=0
L_Ld         drain  dd    {Ld}
R_Ld         drain  dd    10

L_Ls         source lsrs  {Ls}
R_Ls         source lsrs  10
R_Rs         s      lsrs  {Rs}

L_Lg         gate   lgrg  {Lg}
R_Lg         gate   lgrg  10
R_Rg         lgrg   g     {Rg}

E1    Tj     w      VALUE={TEMP}
R1    w      0      1u

.ENDS

**********

.SUBCKT IPW65R110CFDA_L1 drain gate source PARAMS: dVth=0 dRdson=0

.PARAM Rs=2m        Rg=1.31      Ls=5n        Ld=3n        Lg=5n
.PARAM act=25.62    Inn=19.2     Unn=10       Rmax=110m

X1  dd g s Tj Tj cool_650_icfd_var PARAMS: act={act} dVth={dVth} dR={dRdson} Inn={Inn} Unn={Unn} 
                                        +Rmax={Rmax} Rs={Rs} heat=0
L_Ld         drain  dd    {Ld}
R_Ld         drain  dd    10

L_Ls         source lsrs  {Ls}
R_Ls         source lsrs  10
R_Rs         s      lsrs  {Rs}

L_Lg         gate   lgrg  {Lg}
R_Lg         gate   lgrg  10
R_Rg         lgrg   g     {Rg}

E1    Tj     w      VALUE={TEMP}
R1    w      0      1u

.ENDS

**********

.SUBCKT IPB65R110CFDA_L1 drain gate source PARAMS: dVth=0 dRdson=0

.PARAM Rs=2m        Rg=1.31      Ls=2.5n      Ld=1n        Lg=4n
.PARAM act=25.62    Inn=19.2     Unn=10       Rmax=110m

X1  dd g s Tj Tj cool_650_icfd_var PARAMS: act={act} dVth={dVth} dR={dRdson} Inn={Inn} Unn={Unn} 
                                        +Rmax={Rmax} Rs={Rs} heat=0
L_Ld         drain  dd    {Ld}
R_Ld         drain  dd    10

L_Ls         source lsrs  {Ls}
R_Ls         source lsrs  10
R_Rs         s      lsrs  {Rs}

L_Lg         gate   lgrg  {Lg}
R_Lg         gate   lgrg  10
R_Rg         lgrg   g     {Rg}

E1    Tj     w      VALUE={TEMP}
R1    w      0      1u

.ENDS

**********

.SUBCKT IPP65R150CFDA_L1 drain gate source PARAMS: dVth=0 dRdson=0

.PARAM Rs=2m        Rg=1.51      Ls=2.5n      Ld=2.5n      Lg=4n
.PARAM act=18.52    Inn=9.3      Unn=10       Rmax=150m

X1  dd g s Tj Tj cool_650_icfd_var PARAMS: act={act} dVth={dVth} dR={dRdson} Inn={Inn} Unn={Unn} 
                                        +Rmax={Rmax} Rs={Rs} heat=0
L_Ld         drain  dd    {Ld}
R_Ld         drain  dd    10

L_Ls         source lsrs  {Ls}
R_Ls         source lsrs  10
R_Rs         s      lsrs  {Rs}

L_Lg         gate   lgrg  {Lg}
R_Lg         gate   lgrg  10
R_Rg         lgrg   g     {Rg}

E1    Tj     w      VALUE={TEMP}
R1    w      0      1u

.ENDS

**********

.SUBCKT IPW65R150CFDA_L1 drain gate source PARAMS: dVth=0 dRdson=0

.PARAM Rs=2m        Rg=1.51      Ls=5n        Ld=3n        Lg=5n
.PARAM act=18.52    Inn=9.3      Unn=10       Rmax=150m

X1  dd g s Tj Tj cool_650_icfd_var PARAMS: act={act} dVth={dVth} dR={dRdson} Inn={Inn} Unn={Unn} 
                                        +Rmax={Rmax} Rs={Rs} heat=0
L_Ld         drain  dd    {Ld}
R_Ld         drain  dd    10

L_Ls         source lsrs  {Ls}
R_Ls         source lsrs  10
R_Rs         s      lsrs  {Rs}

L_Lg         gate   lgrg  {Lg}
R_Lg         gate   lgrg  10
R_Rg         lgrg   g     {Rg}

E1    Tj     w      VALUE={TEMP}
R1    w      0      1u

.ENDS

**********

.SUBCKT IPB65R150CFDA_L1 drain gate source PARAMS: dVth=0 dRdson=0

.PARAM Rs=2m        Rg=1.51      Ls=2.5n      Ld=1n        Lg=4n
.PARAM act=18.52    Inn=9.3      Unn=10       Rmax=150m

X1  dd g s Tj Tj cool_650_icfd_var PARAMS: act={act} dVth={dVth} dR={dRdson} Inn={Inn} Unn={Unn} 
                                        +Rmax={Rmax} Rs={Rs} heat=0
L_Ld         drain  dd    {Ld}
R_Ld         drain  dd    10

L_Ls         source lsrs  {Ls}
R_Ls         source lsrs  10
R_Rs         s      lsrs  {Rs}

L_Lg         gate   lgrg  {Lg}
R_Lg         gate   lgrg  10
R_Rg         lgrg   g     {Rg}

E1    Tj     w      VALUE={TEMP}
R1    w      0      1u

.ENDS

**********

.SUBCKT IPP65R190CFDA_L1 drain gate source PARAMS: dVth=0 dRdson=0

.PARAM Rs=2m        Rg=1.2       Ls=2.5n      Ld=2.5n      Lg=4n
.PARAM act=14.64    Inn=11.0     Unn=10       Rmax=190m

X1  dd g s Tj Tj cool_650_icfd_var PARAMS: act={act} dVth={dVth} dR={dRdson} Inn={Inn} Unn={Unn} 
                                        +Rmax={Rmax} Rs={Rs} heat=0
L_Ld         drain  dd    {Ld}
R_Ld         drain  dd    10

L_Ls         source lsrs  {Ls}
R_Ls         source lsrs  10
R_Rs         s      lsrs  {Rs}

L_Lg         gate   lgrg  {Lg}
R_Lg         gate   lgrg  10
R_Rg         lgrg   g     {Rg}

E1    Tj     w      VALUE={TEMP}
R1    w      0      1u

.ENDS

**********

.SUBCKT IPW65R190CFDA_L1 drain gate source PARAMS: dVth=0 dRdson=0

.PARAM Rs=2m        Rg=1.0       Ls=5n        Ld=3n        Lg=5n
.PARAM act=14.64    Inn=11.0     Unn=10       Rmax=190m

X1  dd g s Tj Tj cool_650_icfd_var PARAMS: act={act} dVth={dVth} dR={dRdson} Inn={Inn} Unn={Unn} 
                                        +Rmax={Rmax} Rs={Rs} heat=0
L_Ld         drain  dd    {Ld}
R_Ld         drain  dd    10

L_Ls         source lsrs  {Ls}
R_Ls         source lsrs  10
R_Rs         s      lsrs  {Rs}

L_Lg         gate   lgrg  {Lg}
R_Lg         gate   lgrg  10
R_Rg         lgrg   g     {Rg}

E1    Tj     w      VALUE={TEMP}
R1    w      0      1u

.ENDS

**********

.SUBCKT IPB65R190CFDA_L1 drain gate source PARAMS: dVth=0 dRdson=0

.PARAM Rs=2m        Rg=1.2       Ls=2.5n      Ld=1n        Lg=4n
.PARAM act=14.64    Inn=11.0     Unn=10       Rmax=190m

X1  dd g s Tj Tj cool_650_icfd_var PARAMS: act={act} dVth={dVth} dR={dRdson} Inn={Inn} Unn={Unn} 
                                        +Rmax={Rmax} Rs={Rs} heat=0
L_Ld         drain  dd    {Ld}
R_Ld         drain  dd    10

L_Ls         source lsrs  {Ls}
R_Ls         source lsrs  10
R_Rs         s      lsrs  {Rs}

L_Lg         gate   lgrg  {Lg}
R_Lg         gate   lgrg  10
R_Rg         lgrg   g     {Rg}

E1    Tj     w      VALUE={TEMP}
R1    w      0      1u

.ENDS

**********

.SUBCKT IPP65R310CFDA_L1 drain gate source PARAMS: dVth=0 dRdson=0

.PARAM Rs=2m        Rg=4.4       Ls=2.5n      Ld=2.5n      Lg=4n
.PARAM act=8.79     Inn=6.6      Unn=10       Rmax=310m

X1  dd g s Tj Tj cool_650_icfd_var PARAMS: act={act} dVth={dVth} dR={dRdson} Inn={Inn} Unn={Unn} 
                                        +Rmax={Rmax} Rs={Rs} heat=0
L_Ld         drain  dd    {Ld}
R_Ld         drain  dd    10

L_Ls         source lsrs  {Ls}
R_Ls         source lsrs  10
R_Rs         s      lsrs  {Rs}

L_Lg         gate   lgrg  {Lg}
R_Lg         gate   lgrg  10
R_Rg         lgrg   g     {Rg}

E1    Tj     w      VALUE={TEMP}
R1    w      0      1u

.ENDS

**********

.SUBCKT IPB65R310CFDA_L1 drain gate source PARAMS: dVth=0 dRdson=0

.PARAM Rs=2m        Rg=4.4       Ls=2.5n      Ld=1n        Lg=4n
.PARAM act=8.79     Inn=6.6      Unn=10       Rmax=310m

X1  dd g s Tj Tj cool_650_icfd_var PARAMS: act={act} dVth={dVth} dR={dRdson} Inn={Inn} Unn={Unn} 
                                        +Rmax={Rmax} Rs={Rs} heat=0
L_Ld         drain  dd    {Ld}
R_Ld         drain  dd    10

L_Ls         source lsrs  {Ls}
R_Ls         source lsrs  10
R_Rs         s      lsrs  {Rs}

L_Lg         gate   lgrg  {Lg}
R_Lg         gate   lgrg  10
R_Rg         lgrg   g     {Rg}

E1    Tj     w      VALUE={TEMP}
R1    w      0      1u

.ENDS

**********

.SUBCKT IPD65R420CFDA_L1 drain gate source PARAMS: dVth=0 dRdson=0

.PARAM Rs=2m        Rg=3.9       Ls=2n        Ld=1n        Lg=3n
.PARAM act=6.89     Inn=5.2      Unn=10       Rmax=420m

X1  dd g s Tj Tj cool_650_icfd_var PARAMS: act={act} dVth={dVth} dR={dRdson} Inn={Inn} Unn={Unn} 
                                        +Rmax={Rmax} Rs={Rs} heat=0
L_Ld         drain  dd    {Ld}
R_Ld         drain  dd    10

L_Ls         source lsrs  {Ls}
R_Ls         source lsrs  10
R_Rs         s      lsrs  {Rs}
