*****************************************************************
* INFINEON Power Transistors                                    *
* Level-0/1/3 PSPICE Library for CoolMOS Transistors C3 650V    *
* Version 271212                                                *
*                                                               *
*****************************************************************
*****************************************************************
*                                                               *
* Models provided by INFINEON are not warranted by INFINEON as  *
* fully representing all of the specifications and operating    *
* characteristics of the semiconductor product to which the     *
* model relates. The model describe the characteristics of a    *
* typical device.                                               *
* In all cases, the current data sheet information for a given  *
* device is the final design guideline and the only actual      *
* performance specification.                                    *
* Altough models can be a useful tool in evaluating device      *
* performance, they cannot model exact device performance under *
* all conditions, nor are they intended to replace bread-       *
* boarding for final verification. INFINEON therefore does not  *
* assume any liability arising from their use.                  *
* INFINEON reserves the right to change models without prior    *
* notice.                                                       *
*                                                               *
* This library contains models of the following INFINEON        *
* CoolMOS transistors:                                          *
*                                                               *
*   650 V C3                                                    *
*        SPA07N65C3        SPI07N65C3        SPP07N65C3         *
*        SPA11N65C3        SPI11N65C3        SPP11N65C3         *
*        SPA15N65C3        SPI15N65C3        SPP15N65C3         *
*        SPA20N65C3        SPI20N65C3        SPP20N65C3         *
*        SPW47N65C3                                             *
*                                                               *
*****************************************************************

.SUBCKT SPA07N65C3_L0  drain  gate  source

Lg     gate  g1    7n
Ld     drain d1    3n
Ls     source s1   7n
Rs      s1    s2   1m

Rg     g1    g2     800m
M1      d2    g2    s2    s2    DMOS    L=1u   W=1u
.MODEL DMOS NMOS ( KP= 11.016  VTO=3.85  THETA=0  VMAX=1.5e5  ETA=0  LEVEL=3)
Rd     d2    d1a    0.429 TC=10m
.MODEL MVDR NMOS (KP=19.44 VTO=-1   LAMBDA=0.1)
Mr d1 d2a d1a d1a MVDR W=1u L=1u
Rx d2a d1a 1m
Cds1 s2 d2 21.4p
Dbd     s2    d2    Dbt
.MODEL     Dbt    D(BV=650   M=0.8  CJO=2.21n  VJ=0.5V)
Dbody   s2   21    DBODY
.MODEL DBODY  D(IS=4.6p  N=1.15  RS=21u  EG=1.12  TT=750n)
Rdiode  d1  21    15.43m TC=6m

.MODEL   sw    NMOS(VTO=0  KP=10   LEVEL=1)
Maux      g2   c    a    a   sw
Maux2     b    d    g2    g2   sw
Eaux      c    a    d2    g2   1
Eaux2     d    g2   d2    g2   -1
Cox       b    d2   1.76n
.MODEL     DGD    D(M=1.2   CJO=1.76n   VJ=0.5)
Rpar      b    d2   1Meg
Dgd       a    d2   DGD
Rpar2     d2   a    10Meg
Cgs     g2    s2    0.8n

.ENDS  SPA07N65C3_L0

******

.SUBCKT SPA11N65C3_L0  drain  gate  source

Lg     gate  g1    7n
Ld     drain d1    3n
Ls     source s1   7n
Rs      s1    s2   1m

Rg     g1    g2     860m
M1      d2    g2    s2    s2    DMOS    L=1u   W=1u
.MODEL DMOS NMOS ( KP= 17.272  VTO=3.85  THETA=0  VMAX=1.5e5  ETA=0  LEVEL=3)
Rd     d2    d1a    0.273 TC=10m
.MODEL MVDR NMOS (KP=30.48 VTO=-1   LAMBDA=0.1)
Mr d1 d2a d1a d1a MVDR W=1u L=1u
Rx d2a d1a 1m
Cds1 s2 d2 33.5p
Dbd     s2    d2    Dbt
.MODEL     Dbt    D(BV=650   M=0.8  CJO=3.46n  VJ=0.5V)
Dbody   s2   21    DBODY
.MODEL DBODY  D(IS=7.2p  N=1.15  RS=13u  EG=1.12  TT=750n)
Rdiode  d1  21    9.84m TC=6m

.MODEL   sw    NMOS(VTO=0  KP=10   LEVEL=1)
Maux      g2   c    a    a   sw
Maux2     b    d    g2    g2   sw
Eaux      c    a    d2    g2   1
Eaux2     d    g2   d2    g2   -1
Cox       b    d2   2.75n
.MODEL     DGD    D(M=1.2   CJO=2.75n   VJ=0.5)
Rpar      b    d2   1Meg
Dgd       a    d2   DGD
Rpar2     d2   a    10Meg
Cgs     g2    s2    1.25n

.ENDS  SPA11N65C3_L0

******

.SUBCKT SPA15N65C3_L0  drain  gate  source

Lg     gate  g1    7n
Ld     drain d1    3n
Ls     source s1   7n
Rs      s1    s2   1m

Rg     g1    g2     1.23
M1      d2    g2    s2    s2    DMOS    L=1u   W=1u
.MODEL DMOS NMOS ( KP= 23.494  VTO=3.85  THETA=0  VMAX=1.5e5  ETA=0  LEVEL=3)
Rd     d2    d1a    0.201 TC=10m
.MODEL MVDR NMOS (KP=41.46 VTO=-1   LAMBDA=0.1)
Mr d1 d2a d1a d1a MVDR W=1u L=1u
Rx d2a d1a 1m
Cds1 s2 d2 45.6p
Dbd     s2    d2    Dbt
.MODEL     Dbt    D(BV=650   M=0.8  CJO=4.71n  VJ=0.5V)
Dbody   s2   21    DBODY
.MODEL DBODY  D(IS=9.8p  N=1.15  RS=10u  EG=1.12  TT=750n)
Rdiode  d1  21    7.24m TC=6m

.MODEL   sw    NMOS(VTO=0  KP=10   LEVEL=1)
Maux      g2   c    a    a   sw
Maux2     b    d    g2    g2   sw
Eaux      c    a    d2    g2   1
Eaux2     d    g2   d2    g2   -1
Cox       b    d2   3.75n
.MODEL     DGD    D(M=1.2   CJO=3.75n   VJ=0.5)
Rpar      b    d2   1Meg
Dgd       a    d2   DGD
Rpar2     d2   a    10Meg
Cgs     g2    s2    1.7n

.ENDS  SPA15N65C3_L0

******

.SUBCKT SPA20N65C3_L0  drain  gate  source

Lg     gate  g1    7n
Ld     drain d1    3n
Ls     source s1   7n
Rs      s1    s2   1m

Rg     g1    g2     0.54
M1      d2    g2    s2    s2    DMOS    L=1u   W=1u
.MODEL DMOS NMOS ( KP= 34.663  VTO=3.85  THETA=0  VMAX=1.5e5  ETA=0  LEVEL=3)
Rd     d2    d1a    0.136 TC=10m
.MODEL MVDR NMOS (KP=61.17 VTO=-1   LAMBDA=0.1)
Mr d1 d2a d1a d1a MVDR W=1u L=1u
Rx d2a d1a 1m
Cds1 s2 d2 67.3p
Dbd     s2    d2    Dbt
.MODEL     Dbt    D(BV=650   M=0.8  CJO=6.95n  VJ=0.5V)
Dbody   s2   21    DBODY
.MODEL DBODY  D(IS=14.5p  N=1.15  RS=7u  EG=1.12  TT=750n)
Rdiode  d1  21    4.9m TC=6m

.MODEL   sw    NMOS(VTO=0  KP=10   LEVEL=1)
Maux      g2   c    a    a   sw
Maux2     b    d    g2    g2   sw
Eaux      c    a    d2    g2   1
Eaux2     d    g2   d2    g2   -1
Cox       b    d2   5.53n
.MODEL     DGD    D(M=1.2   CJO=5.53n   VJ=0.5)
Rpar      b    d2   1Meg
Dgd       a    d2   DGD
Rpar2     d2   a    10Meg
Cgs     g2    s2    2.51n

.ENDS  SPA20N65C3_L0

******

.SUBCKT SPI07N65C3_L0  drain  gate  source

Lg     gate  g1    7n
Ld     drain d1    3n
Ls     source s1   7n
Rs      s1    s2   1m

Rg     g1    g2     800m
M1      d2    g2    s2    s2    DMOS    L=1u   W=1u
.MODEL DMOS NMOS ( KP= 11.016  VTO=3.85  THETA=0  VMAX=1.5e5  ETA=0  LEVEL=3)
Rd     d2    d1a    0.429 TC=10m
.MODEL MVDR NMOS (KP=19.44 VTO=-1   LAMBDA=0.1)
Mr d1 d2a d1a d1a MVDR W=1u L=1u
Rx d2a d1a 1m
Cds1 s2 d2 21.4p
Dbd     s2    d2    Dbt
.MODEL     Dbt    D(BV=650   M=0.8  CJO=2.21n  VJ=0.5V)
Dbody   s2   21    DBODY
.MODEL DBODY  D(IS=4.6p  N=1.15  RS=21u  EG=1.12  TT=750n)
Rdiode  d1  21    15.43m TC=6m

.MODEL   sw    NMOS(VTO=0  KP=10   LEVEL=1)
Maux      g2   c    a    a   sw
Maux2     b    d    g2    g2   sw
Eaux      c    a    d2    g2   1
Eaux2     d    g2   d2    g2   -1
Cox       b    d2   1.76n
.MODEL     DGD    D(M=1.2   CJO=1.76n   VJ=0.5)
Rpar      b    d2   1Meg
Dgd       a    d2   DGD
Rpar2     d2   a    10Meg
Cgs     g2    s2    0.8n

.ENDS  SPI07N65C3_L0

******

.SUBCKT SPI11N65C3_L0  drain  gate  source

Lg     gate  g1    7n
Ld     drain d1    3n
Ls     source s1   7n
Rs      s1    s2   1m

Rg     g1    g2     860m
M1      d2    g2    s2    s2    DMOS    L=1u   W=1u
.MODEL DMOS NMOS ( KP= 17.272  VTO=3.85  THETA=0  VMAX=1.5e5  ETA=0  LEVEL=3)
Rd     d2    d1a    0.273 TC=10m
.MODEL MVDR NMOS (KP=30.48 VTO=-1   LAMBDA=0.1)
Mr d1 d2a d1a d1a MVDR W=1u L=1u
Rx d2a d1a 1m
Cds1 s2 d2 33.5p
Dbd     s2    d2    Dbt
.MODEL     Dbt    D(BV=650   M=0.8  CJO=3.46n  VJ=0.5V)
Dbody   s2   21    DBODY
.MODEL DBODY  D(IS=7.2p  N=1.15  RS=13u  EG=1.12  TT=750n)
Rdiode  d1  21    9.84m TC=6m

.MODEL   sw    NMOS(VTO=0  KP=10   LEVEL=1)
Maux      g2   c    a    a   sw
Maux2     b    d    g2    g2   sw
Eaux      c    a    d2    g2   1
Eaux2     d    g2   d2    g2   -1
Cox       b    d2   2.75n
.MODEL     DGD    D(M=1.2   CJO=2.75n   VJ=0.5)
Rpar      b    d2   1Meg
Dgd       a    d2   DGD
Rpar2     d2   a    10Meg
Cgs     g2    s2    1.25n

.ENDS  SPI11N65C3_L0

******

.SUBCKT SPI15N65C3_L0  drain  gate  source

Lg     gate  g1    7n
Ld     drain d1    3n
Ls     source s1   7n
Rs      s1    s2   1m

Rg     g1    g2     1.23
M1      d2    g2    s2    s2    DMOS    L=1u   W=1u
.MODEL DMOS NMOS ( KP= 23.494  VTO=3.85  THETA=0  VMAX=1.5e5  ETA=0  LEVEL=3)
Rd     d2    d1a    0.201 TC=10m
.MODEL MVDR NMOS (KP=41.46 VTO=-1   LAMBDA=0.1)
Mr d1 d2a d1a d1a MVDR W=1u L=1u
Rx d2a d1a 1m
Cds1 s2 d2 45.6p
Dbd     s2    d2    Dbt
.MODEL     Dbt    D(BV=650   M=0.8  CJO=4.71n  VJ=0.5V)
Dbody   s2   21    DBODY
.MODEL DBODY  D(IS=9.8p  N=1.15  RS=10u  EG=1.12  TT=750n)
Rdiode  d1  21    7.24m TC=6m

.MODEL   sw    NMOS(VTO=0  KP=10   LEVEL=1)
Maux      g2   c    a    a   sw
Maux2     b    d    g2    g2   sw
Eaux      c    a    d2    g2   1
Eaux2     d    g2   d2    g2   -1
Cox       b    d2   3.75n
.MODEL     DGD    D(M=1.2   CJO=3.75n   VJ=0.5)
Rpar      b    d2   1Meg
Dgd       a    d2   DGD
Rpar2     d2   a    10Meg
Cgs     g2    s2    1.7n

.ENDS  SPI15N65C3_L0

******

.SUBCKT SPI20N65C3_L0  drain  gate  source

Lg     gate  g1    7n
Ld     drain d1    3n
Ls     source s1   7n
Rs      s1    s2   1m

Rg     g1    g2     0.54
M1      d2    g2    s2    s2    DMOS    L=1u   W=1u
.MODEL DMOS NMOS ( KP= 34.663  VTO=3.85  THETA=0  VMAX=1.5e5  ETA=0  LEVEL=3)
Rd     d2    d1a    0.136 TC=10m
.MODEL MVDR NMOS (KP=61.17 VTO=-1   LAMBDA=0.1)
Mr d1 d2a d1a d1a MVDR W=1u L=1u
Rx d2a d1a 1m
Cds1 s2 d2 67.3p
Dbd     s2    d2    Dbt
.MODEL     Dbt    D(BV=650   M=0.8  CJO=6.95n  VJ=0.5V)
Dbody   s2   21    DBODY
.MODEL DBODY  D(IS=14.5p  N=1.15  RS=7u  EG=1.12  TT=750n)
Rdiode  d1  21    4.9m TC=6m

.MODEL   sw    NMOS(VTO=0  KP=10   LEVEL=1)
Maux      g2   c    a    a   sw
Maux2     b    d    g2    g2   sw
Eaux      c    a    d2    g2   1
Eaux2     d    g2   d2    g2   -1
Cox       b    d2   5.53n
.MODEL     DGD    D(M=1.2   CJO=5.53n   VJ=0.5)
Rpar      b    d2   1Meg
Dgd       a    d2   DGD
Rpar2     d2   a    10Meg
Cgs     g2    s2    2.51n

.ENDS  SPI20N65C3_L0

******

.SUBCKT SPP07N65C3_L0  drain  gate  source

Lg     gate  g1    7n
Ld     drain d1    3n
Ls     source s1   7n
Rs      s1    s2   1m

Rg     g1    g2     800m
M1      d2    g2    s2    s2    DMOS    L=1u   W=1u
.MODEL DMOS NMOS ( KP= 11.016  VTO=3.85  THETA=0  VMAX=1.5e5  ETA=0  LEVEL=3)
Rd     d2    d1a    0.429 TC=10m
.MODEL MVDR NMOS (KP=19.44 VTO=-1   LAMBDA=0.1)
Mr d1 d2a d1a d1a MVDR W=1u L=1u
Rx d2a d1a 1m
Cds1 s2 d2 21.4p
Dbd     s2    d2    Dbt
.MODEL     Dbt    D(BV=650   M=0.8  CJO=2.21n  VJ=0.5V)
Dbody   s2   21    DBODY
.MODEL DBODY  D(IS=4.6p  N=1.15  RS=21u  EG=1.12  TT=750n)
Rdiode  d1  21    15.43m TC=6m

.MODEL   sw    NMOS(VTO=0  KP=10   LEVEL=1)
Maux      g2   c    a    a   sw
Maux2     b    d    g2    g2   sw
Eaux      c    a    d2    g2   1
Eaux2     d    g2   d2    g2   -1
Cox       b    d2   1.76n
.MODEL     DGD    D(M=1.2   CJO=1.76n   VJ=0.5)
Rpar      b    d2   1Meg
Dgd       a    d2   DGD
Rpar2     d2   a    10Meg
Cgs     g2    s2    0.8n

.ENDS  SPP07N65C3_L0

******

.SUBCKT SPP11N65C3_L0  drain  gate  source

Lg     gate  g1    7n
Ld     drain d1    3n
Ls     source s1   7n
Rs      s1    s2   1m

Rg     g1    g2     860m
M1      d2    g2    s2    s2    DMOS    L=1u   W=1u
.MODEL DMOS NMOS ( KP= 17.272  VTO=3.85  THETA=0  VMAX=1.5e5  ETA=0  LEVEL=3)
Rd     d2    d1a    0.273 TC=10m
.MODEL MVDR NMOS (KP=30.48 VTO=-1   LAMBDA=0.1)
Mr d1 d2a d1a d1a MVDR W=1u L=1u
Rx d2a d1a 1m
Cds1 s2 d2 33.5p
Dbd     s2    d2    Dbt
.MODEL     Dbt    D(BV=650   M=0.8  CJO=3.46n  VJ=0.5V)
Dbody   s2   21    DBODY
.MODEL DBODY  D(IS=7.2p  N=1.15  RS=13u  EG=1.12  TT=750n)
Rdiode  d1  21    9.84m TC=6m

.MODEL   sw    NMOS(VTO=0  KP=10   LEVEL=1)
Maux      g2   c    a    a   sw
Maux2     b    d    g2    g2   sw
Eaux      c    a    d2    g2   1
Eaux2     d    g2   d2    g2   -1
Cox       b    d2   2.75n
.MODEL     DGD    D(M=1.2   CJO=2.75n   VJ=0.5)
Rpar      b    d2   1Meg
Dgd       a    d2   DGD
Rpar2     d2   a    10Meg
Cgs     g2    s2    1.25n

.ENDS  SPP11N65C3_L0

******

.SUBCKT SPP15N65C3_L0  drain  gate  source

Lg     gate  g1    7n
Ld     drain d1    3n
Ls     source s1   7n
Rs      s1    s2   1m

Rg     g1    g2     1.23
M1      d2    g2    s2    s2    DMOS    L=1u   W=1u
.MODEL DMOS NMOS ( KP= 23.494  VTO=3.85  THETA=0  VMAX=1.5e5  ETA=0  LEVEL=3)
Rd     d2    d1a    0.201 TC=10m
.MODEL MVDR NMOS (KP=41.46 VTO=-1   LAMBDA=0.1)
Mr d1 d2a d1a d1a MVDR W=1u L=1u
Rx d2a d1a 1m
Cds1 s2 d2 45.6p
Dbd     s2    d2    Dbt
.MODEL     Dbt    D(BV=650   M=0.8  CJO=4.71n  VJ=0.5V)
Dbody   s2   21    DBODY
.MODEL DBODY  D(IS=9.8p  N=1.15  RS=10u  EG=1.12  TT=750n)
Rdiode  d1  21    7.24m TC=6m

.MODEL   sw    NMOS(VTO=0  KP=10   LEVEL=1)
Maux      g2   c    a    a   sw
Maux2     b    d    g2    g2   sw
Eaux      c    a    d2    g2   1
Eaux2     d    g2   d2    g2   -1
Cox       b    d2   3.75n
.MODEL     DGD    D(M=1.2   CJO=3.75n   VJ=0.5)
Rpar      b    d2   1Meg
Dgd       a    d2   DGD
Rpar2     d2   a    10Meg
Cgs     g2    s2    1.7n

.ENDS  SPP15N65C3_L0

******

.SUBCKT SPP20N65C3_L0  drain  gate  source

Lg     gate  g1    7n
Ld     drain d1    3n
Ls     source s1   7n
Rs      s1    s2   1m

Rg     g1    g2     0.54
M1      d2    g2    s2    s2    DMOS    L=1u   W=1u
.MODEL DMOS NMOS ( KP= 34.663  VTO=3.85  THETA=0  VMAX=1.5e5  ETA=0  LEVEL=3)
Rd     d2    d1a    0.136 TC=10m
.MODEL MVDR NMOS (KP=61.17 VTO=-1   LAMBDA=0.1)
Mr d1 d2a d1a d1a MVDR W=1u L=1u
Rx d2a d1a 1m
Cds1 s2 d2 67.3p
Dbd     s2    d2    Dbt
.MODEL     Dbt    D(BV=650   M=0.8  CJO=6.95n  VJ=0.5V)
Dbody   s2   21    DBODY
.MODEL DBODY  D(IS=14.5p  N=1.15  RS=7u  EG=1.12  TT=750n)
Rdiode  d1  21    4.9m TC=6m

.MODEL   sw    NMOS(VTO=0  KP=10   LEVEL=1)
Maux      g2   c    a    a   sw
Maux2     b    d    g2    g2   sw
Eaux      c    a    d2    g2   1
Eaux2     d    g2   d2    g2   -1
Cox       b    d2   5.53n
.MODEL     DGD    D(M=1.2   CJO=5.53n   VJ=0.5)
Rpar      b    d2   1Meg
Dgd       a    d2   DGD
Rpar2     d2   a    10Meg
Cgs     g2    s2    2.51n

.ENDS  SPP20N65C3_L0

******

.SUBCKT SPW47N65C3_L0  drain  gate  source

Lg     gate  g1    7n
Ld     drain d1    3n
Ls     source s1   7n
Rs      s1    s2   500u

Rg     g1    g2     620m
M1      d2    g2    s2    s2    DMOS    L=1u   W=1u
.MODEL DMOS NMOS ( KP= 99.637  VTO=3.85  THETA=0  VMAX=1.5e5  ETA=0  LEVEL=3)
Rd     d2    d1a    0.047 TC=10m
.MODEL MVDR NMOS (KP=175.83 VTO=-1   LAMBDA=0.1)
Mr d1 d2a d1a d1a MVDR W=1u L=1u
Rx d2a d1a 1m
Cds1 s2 d2 193.4p
Dbd     s2    d2    Dbt
.MODEL     Dbt    D(BV=650   M=0.8  CJO=19.99n  VJ=0.5V)
Dbody   s2   21    DBODY
.MODEL DBODY  D(IS=41.6p  N=1.15  RS=2u  EG=1.12  TT=750n)
Rdiode  d1  21    1.71m TC=6m

.MODEL   sw    NMOS(VTO=0  KP=10   LEVEL=1)
Maux      g2   c    a    a   sw
Maux2     b    d    g2    g2   sw
Eaux      c    a    d2    g2   1
Eaux2     d    g2   d2    g2   -1
Cox       b    d2   15.88n
.MODEL     DGD    D(M=1.2   CJO=15.88n   VJ=0.5)
Rpar      b    d2   1Meg
Dgd       a    d2   DGD
Rpar2     d2   a    10Meg
Cgs     g2    s2    7.21n

.ENDS  SPW47N65C3_L0

******

.SUBCKT SPA07N65C3_L1 drain gate source PARAMS: dVth=0 dRdson=0

.PARAM Rs=1m        Rg=800m      Ls=7n        Ld=3n        Lg=7n
.PARAM act=6.48     Inn=7.3      Unn=10       Rmax=600m

X1  dd g s Tj Tj cool_650_c_var PARAMS: act={act} dVth={dVth} dR={dRdson} Inn={Inn} Unn={Unn} 
                                        +Rmax={Rmax} Rs={Rs} heat=0
L_Ld         drain  dd    {Ld}
R_Ld         drain  dd    10

L_Ls         source lsrs  {Ls}
R_Ls         source lsrs  10
R_Rs         s      lsrs  {Rs}

L_Lg         gate   lgrg  {Lg}
R_Lg         gate   lgrg  10
R_Rg         lgrg   g     {Rg}

E1    Tj     w      VALUE={TEMP}
R1    w      0      1u

.ENDS

**********

.SUBCKT SPA11N65C3_L1 drain gate source PARAMS: dVth=0 dRdson=0

.PARAM Rs=1m        Rg=860m      Ls=7n        Ld=3n        Lg=7n
.PARAM act=10.16    Inn=11       Unn=10       Rmax=380m

X1  dd g s Tj Tj cool_650_c_var PARAMS: act={act} dVth={dVth} dR={dRdson} Inn={Inn} Unn={Unn} 
                                        +Rmax={Rmax} Rs={Rs} heat=0
L_Ld         drain  dd    {Ld}
R_Ld         drain  dd    10

L_Ls         source lsrs  {Ls}
R_Ls         source lsrs  10
R_Rs         s      lsrs  {Rs}

L_Lg         gate   lgrg  {Lg}
R_Lg         gate   lgrg  10
R_Rg         lgrg   g     {Rg}

E1    Tj     w      VALUE={TEMP}
R1    w      0      1u

.ENDS

**********

.SUBCKT SPA15N65C3_L1 drain gate source PARAMS: dVth=0 dRdson=0

.PARAM Rs=1m        Rg=1.23      Ls=7n        Ld=3n        Lg=7n
.PARAM act=13.82    Inn=9.4      Unn=10       Rmax=280m

X1  dd g s Tj Tj cool_650_c_var PARAMS: act={act} dVth={dVth} dR={dRdson} Inn={Inn} Unn={Unn} 
                                        +Rmax={Rmax} Rs={Rs} heat=0
L_Ld         drain  dd    {Ld}
R_Ld         drain  dd    10

L_Ls         source lsrs  {Ls}
R_Ls         source lsrs  10
R_Rs         s      lsrs  {Rs}

L_Lg         gate   lgrg  {Lg}
R_Lg         gate   lgrg  10
R_Rg         lgrg   g     {Rg}

E1    Tj     w      VALUE={TEMP}
R1    w      0      1u

.ENDS

**********

.SUBCKT SPA20N65C3_L1 drain gate source PARAMS: dVth=0 dRdson=0

.PARAM Rs=1m        Rg=0.54      Ls=7n        Ld=3n        Lg=7n
.PARAM act=20.39    Inn=20.7     Unn=10       Rmax=190m

X1  dd g s Tj Tj cool_650_c_var PARAMS: act={act} dVth={dVth} dR={dRdson} Inn={Inn} Unn={Unn} 
                                        +Rmax={Rmax} Rs={Rs} heat=0
L_Ld         drain  dd    {Ld}
R_Ld         drain  dd    10

L_Ls         source lsrs  {Ls}
R_Ls         source lsrs  10
R_Rs         s      lsrs  {Rs}

L_Lg         gate   lgrg  {Lg}
R_Lg         gate   lgrg  10
R_Rg         lgrg   g     {Rg}

E1    Tj     w      VALUE={TEMP}
R1    w      0      1u

.ENDS

**********

.SUBCKT SPI07N65C3_L1 drain gate source PARAMS: dVth=0 dRdson=0

.PARAM Rs=1m        Rg=800m      Ls=7n        Ld=3n        Lg=7n
.PARAM act=6.48     Inn=7.3      Unn=10       Rmax=600m

X1  dd g s Tj Tj cool_650_c_var PARAMS: act={act} dVth={dVth} dR={dRdson} Inn={Inn} Unn={Unn} 
                                        +Rmax={Rmax} Rs={Rs} heat=0
L_Ld         drain  dd    {Ld}
R_Ld         drain  dd    10

L_Ls         source lsrs  {Ls}
R_Ls         source lsrs  10
R_Rs         s      lsrs  {Rs}

L_Lg         gate   lgrg  {Lg}
R_Lg         gate   lgrg  10
R_Rg         lgrg   g     {Rg}

E1    Tj     w      VALUE={TEMP}
R1    w      0      1u

.ENDS

**********

.SUBCKT SPI11N65C3_L1 drain gate source PARAMS: dVth=0 dRdson=0

.PARAM Rs=1m        Rg=860m      Ls=7n        Ld=3n        Lg=7n
.PARAM act=10.16    Inn=11       Unn=10       Rmax=380m

X1  dd g s Tj Tj cool_650_c_var PARAMS: act={act} dVth={dVth} dR={dRdson} Inn={Inn} Unn={Unn} 
                                        +Rmax={Rmax} Rs={Rs} heat=0
L_Ld         drain  dd    {Ld}
R_Ld         drain  dd    10

L_Ls         source lsrs  {Ls}
R_Ls         source lsrs  10
R_Rs         s      lsrs  {Rs}

L_Lg         gate   lgrg  {Lg}
R_Lg         gate   lgrg  10
R_Rg         lgrg   g     {Rg}

E1    Tj     w      VALUE={TEMP}
R1    w      0      1u

.ENDS

**********

.SUBCKT SPI15N65C3_L1 drain gate source PARAMS: dVth=0 dRdson=0

.PARAM Rs=1m        Rg=1.23      Ls=7n        Ld=3n        Lg=7n
.PARAM act=13.82    Inn=9.4      Unn=10       Rmax=280m

X1  dd g s Tj Tj cool_650_c_var PARAMS: act={act} dVth={dVth} dR={dRdson} Inn={Inn} Unn={Unn} 
                                        +Rmax={Rmax} Rs={Rs} heat=0
L_Ld         drain  dd    {Ld}
R_Ld         drain  dd    10

L_Ls         source lsrs  {Ls}
R_Ls         source lsrs  10
R_Rs         s      lsrs  {Rs}

L_Lg         gate   lgrg  {Lg}
R_Lg         gate   lgrg  10
R_Rg         lgrg   g     {Rg}

E1    Tj     w      VALUE={TEMP}
R1    w      0      1u

.ENDS

**********

.SUBCKT SPI20N65C3_L1 drain gate source PARAMS: dVth=0 dRdson=0

.PARAM Rs=1m        Rg=0.54      Ls=7n        Ld=3n        Lg=7n
.PARAM act=20.39    Inn=20.7     Unn=10       Rmax=190m

X1  dd g s Tj Tj cool_650_c_var PARAMS: act={act} dVth={dVth} dR={dRdson} Inn={Inn} Unn={Unn} 
                                        +Rmax={Rmax} Rs={Rs} heat=0
L_Ld         drain  dd    {Ld}
R_Ld         drain  dd    10

L_Ls         source lsrs  {Ls}
R_Ls         source lsrs  10
R_Rs         s      lsrs  {Rs}

L_Lg         gate   lgrg  {Lg}
R_Lg         gate   lgrg  10
R_Rg         lgrg   g     {Rg}

E1    Tj     w      VALUE={TEMP}
R1    w      0      1u

.ENDS

**********

.SUBCKT SPP07N65C3_L1 drain gate source PARAMS: dVth=0 dRdson=0

.PARAM Rs=1m        Rg=800m      Ls=7n        Ld=3n        Lg=7n
.PARAM act=6.48     Inn=7.3      Unn=10       Rmax=600m

X1  dd g s Tj Tj cool_650_c_var PARAMS: act={act} dVth={dVth} dR={dRdson} Inn={Inn} Unn={Unn} 
                                        +Rmax={Rmax} Rs={Rs} heat=0
L_Ld         drain  dd    {Ld}
R_Ld         drain  dd    10

L_Ls         source lsrs  {Ls}
R_Ls         source lsrs  10
R_Rs         s      lsrs  {Rs}

L_Lg         gate   lgrg  {Lg}
R_Lg         gate   lgrg  10
R_Rg         lgrg   g     {Rg}

E1    Tj     w      VALUE={TEMP}
R1    w      0      1u

.ENDS

**********

.SUBCKT SPP11N65C3_L1 drain gate source PARAMS: dVth=0 dRdson=0

.PARAM Rs=1m        Rg=860m      Ls=7n        Ld=3n        Lg=7n
.PARAM act=10.16    Inn=11       Unn=10       Rmax=380m

X1  dd g s Tj Tj cool_650_c_var PARAMS: act={act} dVth={dVth} dR={dRdson} Inn={Inn} Unn={Unn} 
                                        +Rmax={Rmax} Rs={Rs} heat=0
L_Ld         drain  dd    {Ld}
R_Ld         drain  dd    10

L_Ls         source lsrs  {Ls}
R_Ls         source lsrs  10
R_Rs         s      lsrs  {Rs}

L_Lg         gate   lgrg  {Lg}
R_Lg         gate   lgrg  10
R_Rg         lgrg   g     {Rg}

E1    Tj     w      VALUE={TEMP}
R1    w      0      1u

.ENDS

**********

.SUBCKT SPP15N65C3_L1 drain gate source PARAMS: dVth=0 dRdson=0

.PARAM Rs=1m        Rg=1.23      Ls=7n        Ld=3n        Lg=7n
.PARAM act=13.82    Inn=9.4      Unn=10       Rmax=280m

X1  dd g s Tj Tj cool_650_c_var PARAMS: act={act} dVth={dVth} dR={dRdson} Inn={Inn} Unn={Unn} 
                                        +Rmax={Rmax} Rs={Rs} heat=0
L_Ld         drain  dd    {Ld}
R_Ld         drain  dd    10

L_Ls         source lsrs  {Ls}
R_Ls         source lsrs  10
R_Rs         s      lsrs  {Rs}

L_Lg         gate   lgrg  {Lg}
R_Lg         gate   lgrg  10
R_Rg         lgrg   g     {Rg}

E1    Tj     w      VALUE={TEMP}
R1    w      0      1u

.ENDS

**********

.SUBCKT SPP20N65C3_L1 drain gate source PARAMS: dVth=0 dRdson=0

.PARAM Rs=1m        Rg=0.54      Ls=7n        Ld=3n        Lg=7n
.PARAM act=20.39    Inn=20.7     Unn=10       Rmax=190m

X1  dd g s Tj Tj cool_650_c_var PARAMS: act={act} dVth={dVth} dR={dRdson} Inn={Inn} Unn={Unn} 
                                        +Rmax={Rmax} Rs={Rs} heat=0
L_Ld         drain  dd    {Ld}
R_Ld         drain  dd    10

L_Ls         source lsrs  {Ls}
R_Ls         source lsrs  10
R_Rs         s      lsrs  {Rs}

L_Lg         gate   lgrg  {Lg}
R_Lg         gate   lgrg  10
R_Rg         lgrg   g     {Rg}

E1    Tj     w      VALUE={TEMP}
R1    w      0      1u

.ENDS

**********

.SUBCKT SPW47N65C3_L1 drain gate source PARAMS: dVth=0 dRdson=0

.PARAM Rs=500u      Rg=620m      Ls=7n        Ld=3n        Lg=7n
.PARAM act=58.61    Inn=47       Unn=10       Rmax=70m

X1  dd g s Tj Tj cool_650_c_var PARAMS: act={act} dVth={dVth} dR={dRdson} Inn={Inn} Unn={Unn} 
                                        +Rmax={Rmax} Rs={Rs} heat=0
L_Ld         drain  dd    {Ld}
R_Ld         drain  dd    10

L_Ls         source lsrs  {Ls}
R_Ls         source lsrs  10
R_Rs         s      lsrs  {Rs}

L_Lg         gate   lgrg  {Lg}
R_Lg         gate   lgrg  10
R_Rg         lgrg   g     {Rg}

E1    Tj     w      VALUE={TEMP}
R1    w      0      1u

.ENDS

***********

.SUBCKT SPA07N65C3_L3 drain gate source Tj Tcase PARAMS: dVth=0 dRdson=0 Zthtype=0

.PARAM Rs=1m        Rg=800m      Ls=7n        Ld=3n        Lg=7n
.PARAM act=6.48     Inn=7.3      Unn=10       Rmax=600m
.PARAM lzth={limit(Zthtype,0,1)}

X1  dd g s Tj 1 cool_650_c_var PARAMS: act={act} dVth={dVth} dR={dRdson} Inn={Inn} Unn={Unn} 
                                        +Rmax={Rmax} Rs={Rs} heat=1
L_Ld         drain  dd    {Ld}
R_Ld         drain  dd    10

L_Ls         source lsrs  {Ls}
R_Ls         source lsrs  10
R_Rs         s      lsrs  {Rs}

L_Lg         gate   lgrg  {Lg}
R_Lg         gate   lgrg  10
R_Rg         lgrg   g     {Rg}

C_CZth1      Tj     0     62.337u
C_CZth2      0      1     375.909u
C_CZth3      0      2     530.695u
C_CZth4      0      3     3.017m
C_CZth5      0      4     8.235m
C_CZth6      0      5     18m
C_CZth7      0      6     500m
C_CZth8      0      7     600m
R_Rth1       Tj     1     {26.17m+lzth*6.79m}
R_Rth2       1      2     {36.1m+lzth*9.36m}
R_Rth3       2      3     {202.59m+lzth*52.52m}
R_Rth4       3      4     {265.21m+lzth*103.9m}
R_Rth5       4      5     {257.75m+lzth*94.15m}
R_Rth6       5      6     1
R_Rth7       6      7     5
R_Rth8       5      Tcase {2.1+lzth*745.47m}
.ENDS

**********

.SUBCKT SPA11N65C3_L3 drain gate source Tj Tcase PARAMS: dVth=0 dRdson=0 Zthtype=0

.PARAM Rs=1m        Rg=860m      Ls=7n        Ld=3n        Lg=7n
.PARAM act=10.16    Inn=11       Unn=10       Rmax=380m
.PARAM lzth={limit(Zthtype,0,1)}

X1  dd g s Tj 1 cool_650_c_var PARAMS: act={act} dVth={dVth} dR={dRdson} Inn={Inn} Unn={Unn} 
                                        +Rmax={Rmax} Rs={Rs} heat=1
L_Ld         drain  dd    {Ld}
R_Ld         drain  dd    10

L_Ls         source lsrs  {Ls}
R_Ls         source lsrs  10
R_Rs         s      lsrs  {Rs}

L_Lg         gate   lgrg  {Lg}
R_Lg         gate   lgrg  10
R_Rg         lgrg   g     {Rg}

C_CZth1      Tj     0     97.739u
C_CZth2      0      1     589.388u
C_CZth3      0      2     832.077u
C_CZth4      0      3     4.73m
C_CZth5      0      4     13.856m
C_CZth6      0      5     18m
C_CZth7      0      6     500m
C_CZth8      0      7     600m
R_Rth1       Tj     1     {16.69m+lzth*4.33m}
R_Rth2       1      2     {23.03m+lzth*5.97m}
R_Rth3       2      3     {129.21m+lzth*33.5m}
R_Rth4       3      4     {187.32m+lzth*90.33m}
R_Rth5       4      5     {182.56m+lzth*84.11m}
R_Rth6       5      6     1
R_Rth7       6      7     5
R_Rth8       5      Tcase {2.1+lzth*942.96m}
.ENDS

**********

.SUBCKT SPA15N65C3_L3 drain gate source Tj Tcase PARAMS: dVth=0 dRdson=0 Zthtype=0

.PARAM Rs=1m        Rg=1.23      Ls=7n        Ld=3n        Lg=7n
.PARAM act=13.82    Inn=9.4      Unn=10       Rmax=280m
.PARAM lzth={limit(Zthtype,0,1)}

X1  dd g s Tj 1 cool_650_c_var PARAMS: act={act} dVth={dVth} dR={dRdson} Inn={Inn} Unn={Unn} 
                                        +Rmax={Rmax} Rs={Rs} heat=1
L_Ld         drain  dd    {Ld}
R_Ld         drain  dd    10

L_Ls         source lsrs  {Ls}
R_Ls         source lsrs  10
R_Rs         s      lsrs  {Rs}

L_Lg         gate   lgrg  {Lg}
R_Lg         gate   lgrg  10
R_Rg         lgrg   g     {Rg}

C_CZth1      Tj     0     132.948u
C_CZth2      0      1     801.706u
C_CZth3      0      2     1.132m
C_CZth4      0      3     6.434m
C_CZth5      0      4     19.446m
C_CZth6      0      5     18m
C_CZth7      0      6     500m
C_CZth8      0      7     600m
R_Rth1       Tj     1     {12.27m+lzth*3.18m}
R_Rth2       1      2     {16.93m+lzth*4.39m}
R_Rth3       2      3     {94.99m+lzth*24.63m}
R_Rth4       3      4     {145.49m+lzth*74.64m}
R_Rth5       4      5     {141.99m+lzth*70.07m}
R_Rth6       5      6     1
R_Rth7       6      7     5
R_Rth8       5      Tcase {2.1+lzth*1.01}
.ENDS

**********

.SUBCKT SPA20N65C3_L3 drain gate source Tj Tcase PARAMS: dVth=0 dRdson=0 Zthtype=0

.PARAM Rs=1m        Rg=0.54      Ls=7n        Ld=3n        Lg=7n
.PARAM act=20.39    Inn=20.7     Unn=10       Rmax=190m
.PARAM lzth={limit(Zthtype,0,1)}

X1  dd g s Tj 1 cool_650_c_var PARAMS: act={act} dVth={dVth} dR={dRdson} Inn={Inn} Unn={Unn} 
                                        +Rmax={Rmax} Rs={Rs} heat=1
L_Ld         drain  dd    {Ld}
R_Ld         drain  dd    10

L_Ls         source lsrs  {Ls}
R_Ls         source lsrs  10
R_Rs         s      lsrs  {Rs}

L_Lg         gate   lgrg  {Lg}
R_Lg         gate   lgrg  10
R_Rg         lgrg   g     {Rg}

C_CZth1      Tj     0     196.151u
C_CZth2      0      1     1.183m
C_CZth3      0      2     1.67m
C_CZth4      0      3     9.493m
C_CZth5      0      4     29.481m
C_CZth6      0      5     18m
C_CZth7      0      6     500m
C_CZth8      0      7     600m
R_Rth1       Tj     1     {8.32m+lzth*2.16m}
R_Rth2       1      2     {11.47m+lzth*2.97m}
R_Rth3       2      3     {64.38m+lzth*16.69m}